AMOSTRA/TUM/Chaves.dss
! ==========================================================
! CHAVES — geradas de UNSEMT (Line com Switch=Y)
! ==========================================================
! 17 chave(s) omitida(s): os dois PACs fora da rede de MT deste alimentador, o que criaria ilha flutuante — ex.: 3074249, 2934159, 2993086
New Line.2281347 Phases=1 Bus1=12786-9853058.2 Bus2=12786-9853058c.2 Switch=Y r1=1e-4 x1=1e-4 r0=1e-4 x0=1e-4 normamps=9999
New Line.2281450 Phases=1 Bus1=18422-9859043.2 Bus2=18422-9859043c.2 Switch=Y r1=1e-4 x1=1e-4 r0=1e-4 x0=1e-4 normamps=9999
New Line.2816093 Phases=3 Bus1=25203-11100317.1.2.3 Bus2=25203-11100317c.1.2.3 Switch=Y r1=1e-4 x1=1e-4 r0=1e-4 x0=1e-4 normamps=9999
New Line.2818705 Phases=1 Bus1=25203-11099783.1 Bus2=25203-11099783c.1 Switch=Y r1=1e-4 x1=1e-4 r0=1e-4 x0=1e-4 normamps=9999
New Line.2816677 Phases=1 Bus1=25203-11111602.3 Bus2=25203-11111602c.3 Switch=Y r1=1e-4 x1=1e-4 r0=1e-4 x0=1e-4 normamps=9999
New Line.2275836 Phases=3 Bus1=12779-8042044.1.2.3 Bus2=12779-8042044c.1.2.3 Switch=Y r1=1e-4 x1=1e-4 r0=1e-4 x0=1e-4 normamps=9999
New Line.2275946 Phases=3 Bus1=12779-8042061.1.2.3 Bus2=12779-8042061c.1.2.3 Switch=Y r1=1e-4 x1=1e-4 r0=1e-4 x0=1e-4 normamps=9999
New Line.2275842 Phases=3 Bus1=12779-8042172.1.2.3 Bus2=12779-8042172c.1.2.3 Switch=Y r1=1e-4 x1=1e-4 r0=1e-4 x0=1e-4 normamps=9999
New Line.2275953 Phases=1 Bus1=12779-8041838.2 Bus2=12779-8041838c.2 Switch=Y r1=1e-4 x1=1e-4 r0=1e-4 x0=1e-4 normamps=9999
New Line.2980435 Phases=1 Bus1=12779-8042345.2 Bus2=12779-8042345c.2 Switch=Y r1=1e-4 x1=1e-4 r0=1e-4 x0=1e-4 normamps=9999
New Line.2275947 Phases=3 Bus1=12779-8041865.1.2.3 Bus2=12779-8041865c.1.2.3 Switch=Y r1=1e-4 x1=1e-4 r0=1e-4 x0=1e-4 normamps=9999
New Line.2281326 Phases=3 Bus1=12786-8078606.1.2.3 Bus2=12786-8078606c.1.2.3 Switch=Y r1=1e-4 x1=1e-4 r0=1e-4 x0=1e-4 normamps=9999
New Line.2281087 Phases=1 Bus1=12786-8075951.2 Bus2=12786-8075951c.2 Switch=Y r1=1e-4 x1=1e-4 r0=1e-4 x0=1e-4 normamps=9999
New Line.2280969 Phases=1 Bus1=12786-8074857.2 Bus2=12786-8074857c.2 Switch=Y r1=1e-4 x1=1e-4 r0=1e-4 x0=1e-4 normamps=9999
New Line.2816789 Phases=3 Bus1=16342-11116853.1.2.3 Bus2=16342-11116853c.1.2.3 Switch=Y r1=1e-4 x1=1e-4 r0=1e-4 x0=1e-4 normamps=9999
New Line.2819033 Phases=1 Bus1=16342-11117254.3 Bus2=16342-11117254c.3 Switch=Y r1=1e-4 x1=1e-4 r0=1e-4 x0=1e-4 normamps=9999
New Line.2817945 Phases=1 Bus1=25203-11116692.1 Bus2=25203-11116692c.1 Switch=Y r1=1e-4 x1=1e-4 r0=1e-4 x0=1e-4 normamps=9999
New Line.2816844 Phases=1 Bus1=16342-11117063.3 Bus2=16342-11117063c.3 Switch=Y r1=1e-4 x1=1e-4 r0=1e-4 x0=1e-4 normamps=9999
New Line.2820214 Phases=1 Bus1=16342-11117115.1 Bus2=16342-11117115c.1 Switch=Y r1=1e-4 x1=1e-4 r0=1e-4 x0=1e-4 normamps=9999
New Line.2816161 Phases=1 Bus1=16342-11117120.1 Bus2=16342-11117120c.1 Switch=Y r1=1e-4 x1=1e-4 r0=1e-4 x0=1e-4 normamps=9999
New Line.2816794 Phases=1 Bus1=25203-11115994.2 Bus2=25203-11115994c.2 Switch=Y r1=1e-4 x1=1e-4 r0=1e-4 x0=1e-4 normamps=9999
New Line.2817727 Phases=2 Bus1=25203-11116375.1.2 Bus2=25203-11116375c.1.2 Switch=Y r1=1e-4 x1=1e-4 r0=1e-4 x0=1e-4 normamps=9999
New Line.2815785 Phases=1 Bus1=25203-11104533.3 Bus2=25203-11104533c.3 Switch=Y r1=1e-4 x1=1e-4 r0=1e-4 x0=1e-4 normamps=9999
New Line.2819259 Phases=1 Bus1=16342-11103251.2 Bus2=16342-11103251c.2 Switch=Y r1=1e-4 x1=1e-4 r0=1e-4 x0=1e-4 normamps=9999
New Line.2816426 Phases=1 Bus1=16342-11102804.3 Bus2=16342-11102804c.3 Switch=Y r1=1e-4 x1=1e-4 r0=1e-4 x0=1e-4 normamps=9999
New Line.2819686 Phases=1 Bus1=25203-11104189.2 Bus2=25203-11104189c.2 Switch=Y r1=1e-4 x1=1e-4 r0=1e-4 x0=1e-4 normamps=9999
New Line.2816993 Phases=1 Bus1=25203-11107350.1 Bus2=25203-11107350c.1 Switch=Y r1=1e-4 x1=1e-4 r0=1e-4 x0=1e-4 normamps=9999
New Line.2818003 Phases=1 Bus1=25203-11105409.3 Bus2=25203-11105409c.3 Switch=Y r1=1e-4 x1=1e-4 r0=1e-4 x0=1e-4 normamps=9999
New Line.2819497 Phases=1 Bus1=25203-11107368.3 Bus2=25203-11107368c.3 Switch=Y r1=1e-4 x1=1e-4 r0=1e-4 x0=1e-4 normamps=9999
New Line.2816673 Phases=1 Bus1=25203-11105471.2 Bus2=25203-11105471c.2 Switch=Y r1=1e-4 x1=1e-4 r0=1e-4 x0=1e-4 normamps=9999
New Line.2818249 Phases=1 Bus1=16342-11108936.3 Bus2=16342-11108936c.3 Switch=Y r1=1e-4 x1=1e-4 r0=1e-4 x0=1e-4 normamps=9999
New Line.2816099 Phases=1 Bus1=25203-11110133.3 Bus2=25203-11110133c.3 Switch=Y r1=1e-4 x1=1e-4 r0=1e-4 x0=1e-4 normamps=9999
New Line.2818850 Phases=1 Bus1=25203-11110327.2 Bus2=25203-11110327c.2 Switch=Y r1=1e-4 x1=1e-4 r0=1e-4 x0=1e-4 normamps=9999
New Line.2883929 Phases=1 Bus1=25203-11107801.3 Bus2=25203-11107801c.3 Switch=Y r1=1e-4 x1=1e-4 r0=1e-4 x0=1e-4 normamps=9999
New Line.2816313 Phases=1 Bus1=25203-11107522.2 Bus2=25203-11107522c.2 Switch=Y r1=1e-4 x1=1e-4 r0=1e-4 x0=1e-4 normamps=9999
New Line.2816748 Phases=1 Bus1=25203-11110044.3 Bus2=25203-11110044c.3 Switch=Y r1=1e-4 x1=1e-4 r0=1e-4 x0=1e-4 normamps=9999
New Line.2816162 Phases=1 Bus1=16342-11101658.1 Bus2=16342-11101658c.1 Switch=Y r1=1e-4 x1=1e-4 r0=1e-4 x0=1e-4 normamps=9999
New Line.2772792 Phases=1 Bus1=16342-10829414.2 Bus2=16342-10829414c.2 Switch=Y r1=1e-4 x1=1e-4 r0=1e-4 x0=1e-4 normamps=9999
New Line.2816621 Phases=1 Bus1=16342-11101062.3 Bus2=16342-11101062c.3 Switch=Y r1=1e-4 x1=1e-4 r0=1e-4 x0=1e-4 normamps=9999
New Line.2819700 Phases=1 Bus1=16342-11101312.2 Bus2=16342-11101312c.2 Switch=Y r1=1e-4 x1=1e-4 r0=1e-4 x0=1e-4 normamps=9999
New Line.2817508 Phases=1 Bus1=25203-11101155.3 Bus2=25203-11101155c.3 Switch=Y r1=1e-4 x1=1e-4 r0=1e-4 x0=1e-4 normamps=9999
New Line.2816890 Phases=1 Bus1=25203-11101090.3 Bus2=25203-11101090c.3 Switch=Y r1=1e-4 x1=1e-4 r0=1e-4 x0=1e-4 normamps=9999
New Line.2819678 Phases=1 Bus1=25203-11109137.3 Bus2=25203-11109137c.3 Switch=Y r1=1e-4 x1=1e-4 r0=1e-4 x0=1e-4 normamps=9999
New Line.2817547 Phases=1 Bus1=25203-11109771.2 Bus2=25203-11109771c.2 Switch=Y r1=1e-4 x1=1e-4 r0=1e-4 x0=1e-4 normamps=9999
New Line.2816558 Phases=1 Bus1=16342-11108829.3 Bus2=16342-11108829c.3 Switch=Y r1=1e-4 x1=1e-4 r0=1e-4 x0=1e-4 normamps=9999
New Line.2815142 Phases=1 Bus1=16307-11089242.2 Bus2=16307-11089242c.2 Switch=Y r1=1e-4 x1=1e-4 r0=1e-4 x0=1e-4 normamps=9999
New Line.2815301 Phases=1 Bus1=21682-11089748.2 Bus2=21682-11089748c.2 Switch=Y r1=1e-4 x1=1e-4 r0=1e-4 x0=1e-4 normamps=9999
New Line.2815200 Phases=1 Bus1=16307-11090384.2 Bus2=16307-11090384c.2 Switch=Y r1=1e-4 x1=1e-4 r0=1e-4 x0=1e-4 normamps=9999
New Line.2815421 Phases=3 Bus1=16307-11090513.1.2.3 Bus2=16307-11090513c.1.2.3 Switch=Y r1=1e-4 x1=1e-4 r0=1e-4 x0=1e-4 normamps=9999
New Line.2815189 Phases=3 Bus1=16307-11090566.1.2.3 Bus2=16307-11090566c.1.2.3 Switch=Y r1=1e-4 x1=1e-4 r0=1e-4 x0=1e-4 normamps=9999
New Line.2815125 Phases=3 Bus1=16307-11090578.1.2.3 Bus2=16307-11090578c.1.2.3 Switch=Y r1=1e-4 x1=1e-4 r0=1e-4 x0=1e-4 normamps=9999
New Line.3044054 Phases=1 Bus1=16342-11111954.3 Bus2=16342-11111954c.3 Switch=Y r1=1e-4 x1=1e-4 r0=1e-4 x0=1e-4 normamps=9999
New Line.2817200 Phases=1 Bus1=25203-11112115.3 Bus2=25203-11112115c.3 Switch=Y r1=1e-4 x1=1e-4 r0=1e-4 x0=1e-4 normamps=9999
New Line.2818909 Phases=1 Bus1=16342-11111732.3 Bus2=16342-11111732c.3 Switch=Y r1=1e-4 x1=1e-4 r0=1e-4 x0=1e-4 normamps=9999
New Line.2815870 Phases=1 Bus1=25203-11114830.1 Bus2=25203-11114830c.1 Switch=Y r1=1e-4 x1=1e-4 r0=1e-4 x0=1e-4 normamps=9999
New Line.2817013 Phases=1 Bus1=16342-11118317.1 Bus2=16342-11118317c.1 Switch=Y r1=1e-4 x1=1e-4 r0=1e-4 x0=1e-4 normamps=9999
New Line.2818160 Phases=1 Bus1=16342-11118362.3 Bus2=16342-11118362c.3 Switch=Y r1=1e-4 x1=1e-4 r0=1e-4 x0=1e-4 normamps=9999
New Line.2815928 Phases=1 Bus1=25203-11117964.3 Bus2=25203-11117964c.3 Switch=Y r1=1e-4 x1=1e-4 r0=1e-4 x0=1e-4 normamps=9999
New Line.2820248 Phases=1 Bus1=25203-11122759.3 Bus2=25203-11122759c.3 Switch=Y r1=1e-4 x1=1e-4 r0=1e-4 x0=1e-4 normamps=9999
New Line.2818063 Phases=1 Bus1=25203-11122416.2 Bus2=25203-11122416c.2 Switch=Y r1=1e-4 x1=1e-4 r0=1e-4 x0=1e-4 normamps=9999
New Line.2815739 Phases=1 Bus1=16342-11122954.3 Bus2=16342-11122954c.3 Switch=Y r1=1e-4 x1=1e-4 r0=1e-4 x0=1e-4 normamps=9999
New Line.2817818 Phases=1 Bus1=25203-11121017.3 Bus2=25203-11121017c.3 Switch=Y r1=1e-4 x1=1e-4 r0=1e-4 x0=1e-4 normamps=9999
New Line.2815802 Phases=1 Bus1=25203-11121134.3 Bus2=25203-11121134c.3 Switch=Y r1=1e-4 x1=1e-4 r0=1e-4 x0=1e-4 normamps=9999
New Line.2818542 Phases=1 Bus1=25203-11123097.1 Bus2=25203-11123097c.1 Switch=Y r1=1e-4 x1=1e-4 r0=1e-4 x0=1e-4 normamps=9999
New Line.2817814 Phases=1 Bus1=25203-11317324.2 Bus2=25203-11317324c.2 Switch=Y r1=1e-4 x1=1e-4 r0=1e-4 x0=1e-4 normamps=9999
New Line.2887954 Phases=3 Bus1=16342-11360151.1.2.3 Bus2=16342-11360151c.1.2.3 Switch=Y r1=1e-4 x1=1e-4 r0=1e-4 x0=1e-4 normamps=9999
New Line.2948484 Phases=3 Bus1=25203-11486823.1.2.3 Bus2=25203-11486823c.1.2.3 Switch=Y r1=1e-4 x1=1e-4 r0=1e-4 x0=1e-4 normamps=9999
New Line.2948491 Phases=1 Bus1=25203-11486836.2 Bus2=25203-11486836c.2 Switch=Y r1=1e-4 x1=1e-4 r0=1e-4 x0=1e-4 normamps=9999
New Line.2949178 Phases=2 Bus1=25203-11489058.2.3 Bus2=25203-11489058c.2.3 Switch=Y r1=1e-4 x1=1e-4 r0=1e-4 x0=1e-4 normamps=9999
New Line.2948602 Phases=1 Bus1=25203-11487133.3 Bus2=25203-11487133c.3 Switch=Y r1=1e-4 x1=1e-4 r0=1e-4 x0=1e-4 normamps=9999
New Line.2958497 Phases=1 Bus1=25203-11529796.2 Bus2=25203-11529796c.2 Switch=Y r1=1e-4 x1=1e-4 r0=1e-4 x0=1e-4 normamps=9999
New Line.2961481 Phases=1 Bus1=16342-11543446.3 Bus2=16342-11543446c.3 Switch=Y r1=1e-4 x1=1e-4 r0=1e-4 x0=1e-4 normamps=9999
New Line.2966663 Phases=2 Bus1=12779-11572529.3.1 Bus2=12779-11572529c.3.1 Switch=Y r1=1e-4 x1=1e-4 r0=1e-4 x0=1e-4 normamps=9999
New Line.2968348 Phases=2 Bus1=25203-11585877.3.1 Bus2=25203-11585877c.3.1 Switch=Y r1=1e-4 x1=1e-4 r0=1e-4 x0=1e-4 normamps=9999
New Line.2968352 Phases=2 Bus1=25203-11586019.3.1 Bus2=25203-11586019c.3.1 Switch=Y r1=1e-4 x1=1e-4 r0=1e-4 x0=1e-4 normamps=9999
New Line.2968386 Phases=2 Bus1=25203-11586333.2.3 Bus2=25203-11586333c.2.3 Switch=Y r1=1e-4 x1=1e-4 r0=1e-4 x0=1e-4 normamps=9999
New Line.3036861 Phases=3 Bus1=21682-11945659.1.2.3 Bus2=21682-11945659c.1.2.3 Switch=Y r1=1e-4 x1=1e-4 r0=1e-4 x0=1e-4 normamps=9999
New Line.3161226 Phases=1 Bus1=16342-12734994.3 Bus2=16342-12734994c.3 Switch=Y r1=1e-4 x1=1e-4 r0=1e-4 x0=1e-4 normamps=9999
New Line.3161435 Phases=1 Bus1=16342-12734913.3 Bus2=16342-12734913c.3 Switch=Y r1=1e-4 x1=1e-4 r0=1e-4 x0=1e-4 normamps=9999
New Line.3176625 Phases=2 Bus1=16342-12867509.1.2 Bus2=16342-12867509c.1.2 Switch=Y r1=1e-4 x1=1e-4 r0=1e-4 x0=1e-4 normamps=9999
New Line.2820142 Phases=3 Bus1=25203-12913107.1.2.3 Bus2=25203-12913107c.1.2.3 Switch=Y r1=1e-4 x1=1e-4 r0=1e-4 x0=1e-4 normamps=9999
New Line.3185081 Phases=1 Bus1=25203-12929585.2 Bus2=25203-12929585c.2 Switch=Y r1=1e-4 x1=1e-4 r0=1e-4 x0=1e-4 normamps=9999
New Line.3184788 Phases=2 Bus1=25203-12927221.1.2 Bus2=25203-12927221c.1.2 Switch=Y r1=1e-4 x1=1e-4 r0=1e-4 x0=1e-4 normamps=9999
New Line.2818333 Phases=1 Bus1=25203-11113657.1 Bus2=25203-11113657c.1 Switch=Y r1=1e-4 x1=1e-4 r0=1e-4 x0=1e-4 normamps=9999
New Line.2818837 Phases=1 Bus1=16342-11098992.1 Bus2=16342-11098992c.1 Switch=Y r1=1e-4 x1=1e-4 r0=1e-4 x0=1e-4 normamps=9999
New Line.2819142 Phases=1 Bus1=16342-11112575.3 Bus2=16342-11112575c.3 Switch=Y r1=1e-4 x1=1e-4 r0=1e-4 x0=1e-4 normamps=9999
New Line.2817966 Phases=1 Bus1=25203-11098951.1 Bus2=25203-11098951c.1 Switch=Y r1=1e-4 x1=1e-4 r0=1e-4 x0=1e-4 normamps=9999
New Line.2815810 Phases=1 Bus1=25203-11098960.3 Bus2=25203-11098960c.3 Switch=Y r1=1e-4 x1=1e-4 r0=1e-4 x0=1e-4 normamps=9999
New Line.2281241 Phases=1 Bus1=12786-9853945.2 Bus2=12786-9853945c.2 Switch=Y r1=1e-4 x1=1e-4 r0=1e-4 x0=1e-4 normamps=9999
New Line.2819846 Phases=1 Bus1=25203-11100432.2 Bus2=25203-11100432c.2 Switch=Y r1=1e-4 x1=1e-4 r0=1e-4 x0=1e-4 normamps=9999
New Line.2818325 Phases=1 Bus1=16342-11099916.1 Bus2=16342-11099916c.1 Switch=Y r1=1e-4 x1=1e-4 r0=1e-4 x0=1e-4 normamps=9999
New Line.2815811 Phases=1 Bus1=25203-11111474.1 Bus2=25203-11111474c.1 Switch=Y r1=1e-4 x1=1e-4 r0=1e-4 x0=1e-4 normamps=9999
New Line.2817010 Phases=1 Bus1=25203-11112513.1 Bus2=25203-11112513c.1 Switch=Y r1=1e-4 x1=1e-4 r0=1e-4 x0=1e-4 normamps=9999
New Line.2773575 Phases=1 Bus1=16342-10827424.3 Bus2=16342-10827424c.3 Switch=Y r1=1e-4 x1=1e-4 r0=1e-4 x0=1e-4 normamps=9999
New Line.2275956 Phases=1 Bus1=12779-8042217.1 Bus2=12779-8042217c.1 Switch=Y r1=1e-4 x1=1e-4 r0=1e-4 x0=1e-4 normamps=9999
New Line.2281246 Phases=1 Bus1=12786-8077341.3 Bus2=12786-8077341c.3 Switch=Y r1=1e-4 x1=1e-4 r0=1e-4 x0=1e-4 normamps=9999
New Line.2281341 Phases=3 Bus1=12786-8077394.1.2.3 Bus2=12786-8077394c.1.2.3 Switch=Y r1=1e-4 x1=1e-4 r0=1e-4 x0=1e-4 normamps=9999
New Line.2281375 Phases=1 Bus1=12786-8078567.3 Bus2=12786-8078567c.3 Switch=Y r1=1e-4 x1=1e-4 r0=1e-4 x0=1e-4 normamps=9999
New Line.2281135 Phases=3 Bus1=18422-8077463.1.2.3 Bus2=18422-8077463c.1.2.3 Switch=Y r1=1e-4 x1=1e-4 r0=1e-4 x0=1e-4 normamps=9999
New Line.2280958 Phases=1 Bus1=12786-8077590.2 Bus2=12786-8077590c.2 Switch=Y r1=1e-4 x1=1e-4 r0=1e-4 x0=1e-4 normamps=9999
New Line.2281238 Phases=1 Bus1=12786-8076096.2 Bus2=12786-8076096c.2 Switch=Y r1=1e-4 x1=1e-4 r0=1e-4 x0=1e-4 normamps=9999
New Line.2281420 Phases=3 Bus1=18422-8076159.1.2.3 Bus2=18422-8076159c.1.2.3 Switch=Y r1=1e-4 x1=1e-4 r0=1e-4 x0=1e-4 normamps=9999
New Line.2816997 Phases=1 Bus1=25203-11116950.3 Bus2=25203-11116950c.3 Switch=Y r1=1e-4 x1=1e-4 r0=1e-4 x0=1e-4 normamps=9999
New Line.2818184 Phases=3 Bus1=16342-11115771.1.2.3 Bus2=16342-11115771c.1.2.3 Switch=Y r1=1e-4 x1=1e-4 r0=1e-4 x0=1e-4 normamps=9999
New Line.2819360 Phases=1 Bus1=25203-11116159.3 Bus2=25203-11116159c.3 Switch=Y r1=1e-4 x1=1e-4 r0=1e-4 x0=1e-4 normamps=9999
New Line.2815875 Phases=1 Bus1=25203-11110711.3 Bus2=25203-11110711c.3 Switch=Y r1=1e-4 x1=1e-4 r0=1e-4 x0=1e-4 normamps=9999
New Line.2898238 Phases=1 Bus1=25203-11110958.1 Bus2=25203-11110958c.1 Switch=Y r1=1e-4 x1=1e-4 r0=1e-4 x0=1e-4 normamps=9999
New Line.2816957 Phases=1 Bus1=16342-11110865.2 Bus2=16342-11110865c.2 Switch=Y r1=1e-4 x1=1e-4 r0=1e-4 x0=1e-4 normamps=9999
New Line.2816394 Phases=1 Bus1=16342-11104758.3 Bus2=16342-11104758c.3 Switch=Y r1=1e-4 x1=1e-4 r0=1e-4 x0=1e-4 normamps=9999
New Line.2817763 Phases=1 Bus1=16342-11102728.3 Bus2=16342-11102728c.3 Switch=Y r1=1e-4 x1=1e-4 r0=1e-4 x0=1e-4 normamps=9999
New Line.2816858 Phases=1 Bus1=16342-11102673.1 Bus2=16342-11102673c.1 Switch=Y r1=1e-4 x1=1e-4 r0=1e-4 x0=1e-4 normamps=9999
New Line.2815776 Phases=1 Bus1=16342-11102693.1 Bus2=16342-11102693c.1 Switch=Y r1=1e-4 x1=1e-4 r0=1e-4 x0=1e-4 normamps=9999
New Line.2816922 Phases=1 Bus1=25203-11104120.3 Bus2=25203-11104120c.3 Switch=Y r1=1e-4 x1=1e-4 r0=1e-4 x0=1e-4 normamps=9999
New Line.2819680 Phases=1 Bus1=25203-11106914.3 Bus2=25203-11106914c.3 Switch=Y r1=1e-4 x1=1e-4 r0=1e-4 x0=1e-4 normamps=9999
New Line.2819480 Phases=1 Bus1=25203-11107044.1 Bus2=25203-11107044c.1 Switch=Y r1=1e-4 x1=1e-4 r0=1e-4 x0=1e-4 normamps=9999
New Line.2818914 Phases=1 Bus1=16342-11105939.3 Bus2=16342-11105939c.3 Switch=Y r1=1e-4 x1=1e-4 r0=1e-4 x0=1e-4 normamps=9999
New Line.2817672 Phases=1 Bus1=25203-11106682.1 Bus2=25203-11106682c.1 Switch=Y r1=1e-4 x1=1e-4 r0=1e-4 x0=1e-4 normamps=9999
New Line.2819696 Phases=1 Bus1=16342-11109816.2 Bus2=16342-11109816c.2 Switch=Y r1=1e-4 x1=1e-4 r0=1e-4 x0=1e-4 normamps=9999
New Line.2816403 Phases=1 Bus1=16342-11110483.3 Bus2=16342-11110483c.3 Switch=Y r1=1e-4 x1=1e-4 r0=1e-4 x0=1e-4 normamps=9999
New Line.2771587 Phases=1 Bus1=16342-10837146.3 Bus2=16342-10837146c.3 Switch=Y r1=1e-4 x1=1e-4 r0=1e-4 x0=1e-4 normamps=9999
New Line.2818881 Phases=1 Bus1=25203-11101339.2 Bus2=25203-11101339c.2 Switch=Y r1=1e-4 x1=1e-4 r0=1e-4 x0=1e-4 normamps=9999
New Line.2816881 Phases=1 Bus1=16342-11108512.1 Bus2=16342-11108512c.1 Switch=Y r1=1e-4 x1=1e-4 r0=1e-4 x0=1e-4 normamps=9999
New Line.2815965 Phases=3 Bus1=25203-11109032.1.2.3 Bus2=25203-11109032c.1.2.3 Switch=Y r1=1e-4 x1=1e-4 r0=1e-4 x0=1e-4 normamps=9999
New Line.2815369 Phases=3 Bus1=16307-11088238.1.2.3 Bus2=16307-11088238c.1.2.3 Switch=Y r1=1e-4 x1=1e-4 r0=1e-4 x0=1e-4 normamps=9999
New Line.2815083 Phases=1 Bus1=16307-11088866.2 Bus2=16307-11088866c.2 Switch=Y r1=1e-4 x1=1e-4 r0=1e-4 x0=1e-4 normamps=9999
New Line.2815445 Phases=3 Bus1=16307-11087238.1.2.3 Bus2=16307-11087238c.1.2.3 Switch=Y r1=1e-4 x1=1e-4 r0=1e-4 x0=1e-4 normamps=9999
New Line.2815487 Phases=1 Bus1=16307-11087839.2 Bus2=16307-11087839c.2 Switch=Y r1=1e-4 x1=1e-4 r0=1e-4 x0=1e-4 normamps=9999
New Line.2815502 Phases=3 Bus1=21682-11088977.1.2.3 Bus2=21682-11088977c.1.2.3 Switch=Y r1=1e-4 x1=1e-4 r0=1e-4 x0=1e-4 normamps=9999
New Line.2815498 Phases=3 Bus1=21682-11090470.1.2.3 Bus2=21682-11090470c.1.2.3 Switch=Y r1=1e-4 x1=1e-4 r0=1e-4 x0=1e-4 normamps=9999
New Line.2818879 Phases=1 Bus1=25203-11119311.2 Bus2=25203-11119311c.2 Switch=Y r1=1e-4 x1=1e-4 r0=1e-4 x0=1e-4 normamps=9999
New Line.2817256 Phases=1 Bus1=25203-11122387.2 Bus2=25203-11122387c.2 Switch=Y r1=1e-4 x1=1e-4 r0=1e-4 x0=1e-4 normamps=9999
New Line.2815902 Phases=1 Bus1=16342-11121967.2 Bus2=16342-11121967c.2 Switch=Y r1=1e-4 x1=1e-4 r0=1e-4 x0=1e-4 normamps=9999
New Line.2817103 Phases=1 Bus1=16342-11121991.3 Bus2=16342-11121991c.3 Switch=Y r1=1e-4 x1=1e-4 r0=1e-4 x0=1e-4 normamps=9999
New Line.2815880 Phases=1 Bus1=25203-11120125.1 Bus2=25203-11120125c.1 Switch=Y r1=1e-4 x1=1e-4 r0=1e-4 x0=1e-4 normamps=9999
New Line.2815998 Phases=1 Bus1=25203-11121122.1 Bus2=25203-11121122c.1 Switch=Y r1=1e-4 x1=1e-4 r0=1e-4 x0=1e-4 normamps=9999
New Line.2818194 Phases=1 Bus1=16342-11122073.3 Bus2=16342-11122073c.3 Switch=Y r1=1e-4 x1=1e-4 r0=1e-4 x0=1e-4 normamps=9999
New Line.2818763 Phases=3 Bus1=25203-11121133.1.2.3 Bus2=25203-11121133c.1.2.3 Switch=Y r1=1e-4 x1=1e-4 r0=1e-4 x0=1e-4 normamps=9999
New Line.2817789 Phases=1 Bus1=16342-11317319.3 Bus2=16342-11317319c.3 Switch=Y r1=1e-4 x1=1e-4 r0=1e-4 x0=1e-4 normamps=9999
New Line.2896930 Phases=1 Bus1=25203-11373192.3 Bus2=25203-11373192c.3 Switch=Y r1=1e-4 x1=1e-4 r0=1e-4 x0=1e-4 normamps=9999
New Line.2949168 Phases=2 Bus1=25203-11489027.2.3 Bus2=25203-11489027c.2.3 Switch=Y r1=1e-4 x1=1e-4 r0=1e-4 x0=1e-4 normamps=9999
New Line.2948596 Phases=1 Bus1=25203-11487114.3 Bus2=25203-11487114c.3 Switch=Y r1=1e-4 x1=1e-4 r0=1e-4 x0=1e-4 normamps=9999
New Line.3000005 Phases=1 Bus1=18422-11725970.2 Bus2=18422-11725970c.2 Switch=Y r1=1e-4 x1=1e-4 r0=1e-4 x0=1e-4 normamps=9999
New Line.2999969 Phases=1 Bus1=18422-11725960.2 Bus2=18422-11725960c.2 Switch=Y r1=1e-4 x1=1e-4 r0=1e-4 x0=1e-4 normamps=9999
New Line.3010964 Phases=1 Bus1=16342-11783938.2 Bus2=16342-11783938c.2 Switch=Y r1=1e-4 x1=1e-4 r0=1e-4 x0=1e-4 normamps=9999
New Line.3026163 Phases=2 Bus1=25203-11879091.2.3 Bus2=25203-11879091c.2.3 Switch=Y r1=1e-4 x1=1e-4 r0=1e-4 x0=1e-4 normamps=9999
New Line.3036699 Phases=3 Bus1=21682-11944615.1.2.3 Bus2=21682-11944615c.1.2.3 Switch=Y r1=1e-4 x1=1e-4 r0=1e-4 x0=1e-4 normamps=9999
New Line.3118880 Phases=2 Bus1=25203-12470682.3.1 Bus2=25203-12470682c.3.1 Switch=Y r1=1e-4 x1=1e-4 r0=1e-4 x0=1e-4 normamps=9999
New Line.3161220 Phases=1 Bus1=16342-12735011.3 Bus2=16342-12735011c.3 Switch=Y r1=1e-4 x1=1e-4 r0=1e-4 x0=1e-4 normamps=9999
New Line.3176600 Phases=2 Bus1=16342-12867523.1.2 Bus2=16342-12867523c.1.2 Switch=Y r1=1e-4 x1=1e-4 r0=1e-4 x0=1e-4 normamps=9999
New Line.3184690 Phases=3 Bus1=21682-12926791.1.2.3 Bus2=21682-12926791c.1.2.3 Switch=Y r1=1e-4 x1=1e-4 r0=1e-4 x0=1e-4 normamps=9999
New Line.2819583 Phases=1 Bus1=25203-11113251.1 Bus2=25203-11113251c.1 Switch=Y r1=1e-4 x1=1e-4 r0=1e-4 x0=1e-4 normamps=9999
New Line.2817942 Phases=1 Bus1=25203-11113319.1 Bus2=25203-11113319c.1 Switch=Y r1=1e-4 x1=1e-4 r0=1e-4 x0=1e-4 normamps=9999
New Line.2819624 Phases=1 Bus1=16342-11114055.2 Bus2=16342-11114055c.2 Switch=Y r1=1e-4 x1=1e-4 r0=1e-4 x0=1e-4 normamps=9999
New Line.2819026 Phases=1 Bus1=16342-11113988.2 Bus2=16342-11113988c.2 Switch=Y r1=1e-4 x1=1e-4 r0=1e-4 x0=1e-4 normamps=9999
New Line.2818331 Phases=1 Bus1=25203-11099493.1 Bus2=25203-11099493c.1 Switch=Y r1=1e-4 x1=1e-4 r0=1e-4 x0=1e-4 normamps=9999
New Line.2819694 Phases=1 Bus1=25203-11099505.1 Bus2=25203-11099505c.1 Switch=Y r1=1e-4 x1=1e-4 r0=1e-4 x0=1e-4 normamps=9999
New Line.2281423 Phases=1 Bus1=12786-9855992.2 Bus2=12786-9855992c.2 Switch=Y r1=1e-4 x1=1e-4 r0=1e-4 x0=1e-4 normamps=9999
New Line.2816619 Phases=1 Bus1=25203-11100797.3 Bus2=25203-11100797c.3 Switch=Y r1=1e-4 x1=1e-4 r0=1e-4 x0=1e-4 normamps=9999
New Line.2819277 Phases=1 Bus1=25203-11112412.2 Bus2=25203-11112412c.2 Switch=Y r1=1e-4 x1=1e-4 r0=1e-4 x0=1e-4 normamps=9999
New Line.2275841 Phases=3 Bus1=12779-8041498.1.2.3 Bus2=12779-8041498c.1.2.3 Switch=Y r1=1e-4 x1=1e-4 r0=1e-4 x0=1e-4 normamps=9999
New Line.2275902 Phases=3 Bus1=12779-8041576.1.2.3 Bus2=12779-8041576c.1.2.3 Switch=Y r1=1e-4 x1=1e-4 r0=1e-4 x0=1e-4 normamps=9999
New Line.2275878 Phases=3 Bus1=12779-8041588.1.2.3 Bus2=12779-8041588c.1.2.3 Switch=Y r1=1e-4 x1=1e-4 r0=1e-4 x0=1e-4 normamps=9999
New Line.2275974 Phases=3 Bus1=12779-8041711.1.2.3 Bus2=12779-8041711c.1.2.3 Switch=Y r1=1e-4 x1=1e-4 r0=1e-4 x0=1e-4 normamps=9999
New Line.2281281 Phases=1 Bus1=12786-8074581.3 Bus2=12786-8074581c.3 Switch=Y r1=1e-4 x1=1e-4 r0=1e-4 x0=1e-4 normamps=9999
New Line.2280794 Phases=1 Bus1=12786-8077670.2 Bus2=12786-8077670c.2 Switch=Y r1=1e-4 x1=1e-4 r0=1e-4 x0=1e-4 normamps=9999
New Line.2281319 Phases=3 Bus1=12786-8076611.1.2.3 Bus2=12786-8076611c.1.2.3 Switch=Y r1=1e-4 x1=1e-4 r0=1e-4 x0=1e-4 normamps=9999
New Line.2281237 Phases=1 Bus1=18422-8076139.2 Bus2=18422-8076139c.2 Switch=Y r1=1e-4 x1=1e-4 r0=1e-4 x0=1e-4 normamps=9999
New Line.2816880 Phases=1 Bus1=16342-11114924.3 Bus2=16342-11114924c.3 Switch=Y r1=1e-4 x1=1e-4 r0=1e-4 x0=1e-4 normamps=9999
New Line.2817651 Phases=1 Bus1=25203-11115305.3 Bus2=25203-11115305c.3 Switch=Y r1=1e-4 x1=1e-4 r0=1e-4 x0=1e-4 normamps=9999
New Line.2818492 Phases=1 Bus1=25203-11115828.2 Bus2=25203-11115828c.2 Switch=Y r1=1e-4 x1=1e-4 r0=1e-4 x0=1e-4 normamps=9999
New Line.2818039 Phases=1 Bus1=16342-11115633.1 Bus2=16342-11115633c.1 Switch=Y r1=1e-4 x1=1e-4 r0=1e-4 x0=1e-4 normamps=9999
New Line.2817757 Phases=1 Bus1=16342-11115043.2 Bus2=16342-11115043c.2 Switch=Y r1=1e-4 x1=1e-4 r0=1e-4 x0=1e-4 normamps=9999
New Line.2816829 Phases=1 Bus1=16342-11104756.3 Bus2=16342-11104756c.3 Switch=Y r1=1e-4 x1=1e-4 r0=1e-4 x0=1e-4 normamps=9999
New Line.2817972 Phases=1 Bus1=25203-11102611.1 Bus2=25203-11102611c.1 Switch=Y r1=1e-4 x1=1e-4 r0=1e-4 x0=1e-4 normamps=9999
New Line.2817761 Phases=1 Bus1=16342-11102685.1 Bus2=16342-11102685c.1 Switch=Y r1=1e-4 x1=1e-4 r0=1e-4 x0=1e-4 normamps=9999
New Line.2819182 Phases=1 Bus1=25203-11104604.1 Bus2=25203-11104604c.1 Switch=Y r1=1e-4 x1=1e-4 r0=1e-4 x0=1e-4 normamps=9999
New Line.2817098 Phases=1 Bus1=25203-11105412.3 Bus2=25203-11105412c.3 Switch=Y r1=1e-4 x1=1e-4 r0=1e-4 x0=1e-4 normamps=9999
New Line.2816311 Phases=1 Bus1=25203-11105476.1 Bus2=25203-11105476c.1 Switch=Y r1=1e-4 x1=1e-4 r0=1e-4 x0=1e-4 normamps=9999
New Line.2818607 Phases=1 Bus1=25203-11106467.1 Bus2=25203-11106467c.1 Switch=Y r1=1e-4 x1=1e-4 r0=1e-4 x0=1e-4 normamps=9999
New Line.2816672 Phases=1 Bus1=25203-11105352.1 Bus2=25203-11105352c.1 Switch=Y r1=1e-4 x1=1e-4 r0=1e-4 x0=1e-4 normamps=9999
New Line.2817301 Phases=1 Bus1=16342-11107585.3 Bus2=16342-11107585c.3 Switch=Y r1=1e-4 x1=1e-4 r0=1e-4 x0=1e-4 normamps=9999
New Line.2818095 Phases=1 Bus1=16342-11108931.3 Bus2=16342-11108931c.3 Switch=Y r1=1e-4 x1=1e-4 r0=1e-4 x0=1e-4 normamps=9999
New Line.2818654 Phases=1 Bus1=16342-11110611.2 Bus2=16342-11110611c.2 Switch=Y r1=1e-4 x1=1e-4 r0=1e-4 x0=1e-4 normamps=9999
New Line.2819020 Phases=1 Bus1=16342-11107604.1 Bus2=16342-11107604c.1 Switch=Y r1=1e-4 x1=1e-4 r0=1e-4 x0=1e-4 normamps=9999
New Line.2817393 Phases=1 Bus1=25203-11101408.2 Bus2=25203-11101408c.2 Switch=Y r1=1e-4 x1=1e-4 r0=1e-4 x0=1e-4 normamps=9999
New Line.2819921 Phases=1 Bus1=25203-11108411.2 Bus2=25203-11108411c.2 Switch=Y r1=1e-4 x1=1e-4 r0=1e-4 x0=1e-4 normamps=9999
New Line.2819935 Phases=1 Bus1=25203-11108406.1 Bus2=25203-11108406c.1 Switch=Y r1=1e-4 x1=1e-4 r0=1e-4 x0=1e-4 normamps=9999
New Line.2819357 Phases=1 Bus1=16342-11108858.1 Bus2=16342-11108858c.1 Switch=Y r1=1e-4 x1=1e-4 r0=1e-4 x0=1e-4 normamps=9999
New Line.2815079 Phases=1 Bus1=16307-11089928.2 Bus2=16307-11089928c.2 Switch=Y r1=1e-4 x1=1e-4 r0=1e-4 x0=1e-4 normamps=9999
New Line.2815321 Phases=1 Bus1=21682-11087598.2 Bus2=21682-11087598c.2 Switch=Y r1=1e-4 x1=1e-4 r0=1e-4 x0=1e-4 normamps=9999
New Line.2815246 Phases=3 Bus1=16307-11088763.1.2.3 Bus2=16307-11088763c.1.2.3 Switch=Y r1=1e-4 x1=1e-4 r0=1e-4 x0=1e-4 normamps=9999
New Line.3191756 Phases=3 Bus1=16307-11088250.1.2.3 Bus2=16307-11088250c.1.2.3 Switch=Y r1=1e-4 x1=1e-4 r0=1e-4 x0=1e-4 normamps=9999
New Line.2815077 Phases=1 Bus1=16307-11089228.2 Bus2=16307-11089228c.2 Switch=Y r1=1e-4 x1=1e-4 r0=1e-4 x0=1e-4 normamps=9999
New Line.2815318 Phases=1 Bus1=16307-11087326.2 Bus2=16307-11087326c.2 Switch=Y r1=1e-4 x1=1e-4 r0=1e-4 x0=1e-4 normamps=9999
New Line.2815484 Phases=3 Bus1=16307-11088971.1.2.3 Bus2=16307-11088971c.1.2.3 Switch=Y r1=1e-4 x1=1e-4 r0=1e-4 x0=1e-4 normamps=9999
New Line.2815247 Phases=1 Bus1=21682-11090561.2 Bus2=21682-11090561c.2 Switch=Y r1=1e-4 x1=1e-4 r0=1e-4 x0=1e-4 normamps=9999
New Line.2817273 Phases=1 Bus1=25203-11112327.1 Bus2=25203-11112327c.1 Switch=Y r1=1e-4 x1=1e-4 r0=1e-4 x0=1e-4 normamps=9999
New Line.2817035 Phases=1 Bus1=25203-11117901.3 Bus2=25203-11117901c.3 Switch=Y r1=1e-4 x1=1e-4 r0=1e-4 x0=1e-4 normamps=9999
New Line.2818990 Phases=1 Bus1=25203-11119809.2 Bus2=25203-11119809c.2 Switch=Y r1=1e-4 x1=1e-4 r0=1e-4 x0=1e-4 normamps=9999
New Line.2816360 Phases=1 Bus1=25203-11122314.3 Bus2=25203-11122314c.3 Switch=Y r1=1e-4 x1=1e-4 r0=1e-4 x0=1e-4 normamps=9999
...
